<?xml version="1.0" encoding="UTF-8"?>

<!-- generated on Wed Jan 17 14:31:56 2018 by Netedit Version 0.30.0
<?xml version="1.0" encoding="UTF-8"?>

<configuration xmlns:xsi="http://www.w3.org/2001/XMLSchema-instance" xsi:noNamespaceSchemaLocation="http://sumo.dlr.de/xsd/netconvertConfiguration.xsd">

    <output>
        <output-file value="/Users/anujdimri/Random-Delay-and-Indirections/complexx_cross.net.xml"/>
    </output>

    <processing>
        <no-turnarounds value="true"/>
        <offset.disable-normalization value="true"/>
    </processing>

</configuration>
-->

<net version="0.27" xmlns:xsi="http://www.w3.org/2001/XMLSchema-instance" xsi:noNamespaceSchemaLocation="http://sumo.dlr.de/xsd/net_file.xsd">

    <location netOffset="0.00,0.00" convBoundary="0.00,0.00,2000.00,1000.00" origBoundary="10000000000.00,10000000000.00,-10000000000.00,-10000000000.00" projParameter="!"/>

    <edge id=":0_0" function="internal">
        <lane id=":0_0_0" index="0" speed="13.89" length="5.00" shape="491.75,511.35 491.56,509.99 490.98,509.02 490.01,508.44 488.65,508.25"/>
    </edge>
    <edge id=":0_1" function="internal">
        <lane id=":0_1_0" index="0" speed="13.89" length="22.70" shape="491.75,511.35 491.75,488.65"/>
        <lane id=":0_1_1" index="1" speed="13.89" length="22.70" shape="495.05,511.35 495.05,488.65"/>
        <lane id=":0_1_2" index="2" speed="13.89" length="22.70" shape="498.35,511.35 498.35,488.65"/>
    </edge>
    <edge id=":0_4" function="internal">
        <lane id=":0_4_0" index="0" speed="13.89" length="7.47" shape="498.35,511.35 499.16,505.66 500.05,504.18"/>
    </edge>
    <edge id=":0_20" function="internal">
        <lane id=":0_20_0" index="0" speed="13.89" length="13.50" shape="500.05,504.18 501.60,501.60 505.66,499.16 511.35,498.35"/>
    </edge>
    <edge id=":0_5" function="internal">
        <lane id=":0_5_0" index="0" speed="13.89" length="5.00" shape="511.35,508.25 509.99,508.44 509.02,509.02 508.44,509.99 508.25,511.35"/>
    </edge>
    <edge id=":0_6" function="internal">
        <lane id=":0_6_0" index="0" speed="13.89" length="22.70" shape="511.35,508.25 488.65,508.25"/>
        <lane id=":0_6_1" index="1" speed="13.89" length="22.70" shape="511.35,504.95 488.65,504.95"/>
        <lane id=":0_6_2" index="2" speed="13.89" length="22.70" shape="511.35,501.65 488.65,501.65"/>
    </edge>
    <edge id=":0_9" function="internal">
        <lane id=":0_9_0" index="0" speed="13.89" length="7.47" shape="511.35,501.65 505.66,500.84 504.18,499.95"/>
    </edge>
    <edge id=":0_21" function="internal">
        <lane id=":0_21_0" index="0" speed="13.89" length="13.50" shape="504.18,499.95 501.60,498.40 499.16,494.34 498.35,488.65"/>
    </edge>
    <edge id=":0_10" function="internal">
        <lane id=":0_10_0" index="0" speed="13.89" length="5.00" shape="508.25,488.65 508.44,490.01 509.02,490.98 509.99,491.56 511.35,491.75"/>
    </edge>
    <edge id=":0_11" function="internal">
        <lane id=":0_11_0" index="0" speed="13.89" length="22.70" shape="508.25,488.65 508.25,511.35"/>
        <lane id=":0_11_1" index="1" speed="13.89" length="22.70" shape="504.95,488.65 504.95,511.35"/>
        <lane id=":0_11_2" index="2" speed="13.89" length="22.70" shape="501.65,488.65 501.65,511.35"/>
    </edge>
    <edge id=":0_14" function="internal">
        <lane id=":0_14_0" index="0" speed="13.89" length="7.47" shape="501.65,488.65 500.84,494.34 499.95,495.82"/>
    </edge>
    <edge id=":0_22" function="internal">
        <lane id=":0_22_0" index="0" speed="13.89" length="13.50" shape="499.95,495.82 498.40,498.40 494.34,500.84 488.65,501.65"/>
    </edge>
    <edge id=":0_15" function="internal">
        <lane id=":0_15_0" index="0" speed="13.89" length="5.00" shape="488.65,491.75 490.01,491.56 490.98,490.98 491.56,490.01 491.75,488.65"/>
    </edge>
    <edge id=":0_16" function="internal">
        <lane id=":0_16_0" index="0" speed="13.89" length="22.70" shape="488.65,491.75 511.35,491.75"/>
        <lane id=":0_16_1" index="1" speed="13.89" length="22.70" shape="488.65,495.05 511.35,495.05"/>
        <lane id=":0_16_2" index="2" speed="13.89" length="22.70" shape="488.65,498.35 511.35,498.35"/>
    </edge>
    <edge id=":0_19" function="internal">
        <lane id=":0_19_0" index="0" speed="13.89" length="7.47" shape="488.65,498.35 494.34,499.16 495.82,500.05"/>
    </edge>
    <edge id=":0_23" function="internal">
        <lane id=":0_23_0" index="0" speed="13.89" length="13.50" shape="495.82,500.05 498.40,501.60 500.84,505.66 501.65,511.35"/>
    </edge>
    <edge id=":2_0" function="internal">
        <lane id=":2_0_0" index="0" speed="13.89" length="5.00" shape="991.75,511.35 991.56,509.99 990.98,509.02 990.01,508.44 988.65,508.25"/>
    </edge>
    <edge id=":2_1" function="internal">
        <lane id=":2_1_0" index="0" speed="13.89" length="22.70" shape="991.75,511.35 991.75,488.65"/>
        <lane id=":2_1_1" index="1" speed="13.89" length="22.70" shape="995.05,511.35 995.05,488.65"/>
        <lane id=":2_1_2" index="2" speed="13.89" length="22.70" shape="998.35,511.35 998.35,488.65"/>
    </edge>
    <edge id=":2_4" function="internal">
        <lane id=":2_4_0" index="0" speed="13.89" length="7.47" shape="998.35,511.35 999.16,505.66 1000.05,504.18"/>
    </edge>
    <edge id=":2_20" function="internal">
        <lane id=":2_20_0" index="0" speed="13.89" length="13.50" shape="1000.05,504.18 1001.60,501.60 1005.66,499.16 1011.35,498.35"/>
    </edge>
    <edge id=":2_5" function="internal">
        <lane id=":2_5_0" index="0" speed="13.89" length="5.00" shape="1011.35,508.25 1009.99,508.44 1009.02,509.02 1008.44,509.99 1008.25,511.35"/>
    </edge>
    <edge id=":2_6" function="internal">
        <lane id=":2_6_0" index="0" speed="13.89" length="22.70" shape="1011.35,508.25 988.65,508.25"/>
        <lane id=":2_6_1" index="1" speed="13.89" length="22.70" shape="1011.35,504.95 988.65,504.95"/>
        <lane id=":2_6_2" index="2" speed="13.89" length="22.70" shape="1011.35,501.65 988.65,501.65"/>
    </edge>
    <edge id=":2_9" function="internal">
        <lane id=":2_9_0" index="0" speed="13.89" length="7.47" shape="1011.35,501.65 1005.66,500.84 1004.18,499.95"/>
    </edge>
    <edge id=":2_21" function="internal">
        <lane id=":2_21_0" index="0" speed="13.89" length="13.50" shape="1004.18,499.95 1001.60,498.40 999.16,494.34 998.35,488.65"/>
    </edge>
    <edge id=":2_10" function="internal">
        <lane id=":2_10_0" index="0" speed="13.89" length="5.00" shape="1008.25,488.65 1008.44,490.01 1009.02,490.98 1009.99,491.56 1011.35,491.75"/>
    </edge>
    <edge id=":2_11" function="internal">
        <lane id=":2_11_0" index="0" speed="13.89" length="22.70" shape="1008.25,488.65 1008.25,511.35"/>
        <lane id=":2_11_1" index="1" speed="13.89" length="22.70" shape="1004.95,488.65 1004.95,511.35"/>
        <lane id=":2_11_2" index="2" speed="13.89" length="22.70" shape="1001.65,488.65 1001.65,511.35"/>
    </edge>
    <edge id=":2_14" function="internal">
        <lane id=":2_14_0" index="0" speed="13.89" length="7.47" shape="1001.65,488.65 1000.84,494.34 999.95,495.82"/>
    </edge>
    <edge id=":2_22" function="internal">
        <lane id=":2_22_0" index="0" speed="13.89" length="13.50" shape="999.95,495.82 998.40,498.40 994.34,500.84 988.65,501.65"/>
    </edge>
    <edge id=":2_15" function="internal">
        <lane id=":2_15_0" index="0" speed="13.89" length="5.00" shape="988.65,491.75 990.01,491.56 990.98,490.98 991.56,490.01 991.75,488.65"/>
    </edge>
    <edge id=":2_16" function="internal">
        <lane id=":2_16_0" index="0" speed="13.89" length="22.70" shape="988.65,491.75 1011.35,491.75"/>
        <lane id=":2_16_1" index="1" speed="13.89" length="22.70" shape="988.65,495.05 1011.35,495.05"/>
        <lane id=":2_16_2" index="2" speed="13.89" length="22.70" shape="988.65,498.35 1011.35,498.35"/>
    </edge>
    <edge id=":2_19" function="internal">
        <lane id=":2_19_0" index="0" speed="13.89" length="7.47" shape="988.65,498.35 994.34,499.16 995.82,500.05"/>
    </edge>
    <edge id=":2_23" function="internal">
        <lane id=":2_23_0" index="0" speed="13.89" length="13.50" shape="995.82,500.05 998.40,501.60 1000.84,505.66 1001.65,511.35"/>
    </edge>
    <edge id=":3_0" function="internal">
        <lane id=":3_0_0" index="0" speed="13.89" length="23.87" shape="491.75,9.85 492.88,1.93 496.27,-3.73 501.93,-7.12 509.85,-8.25"/>
        <lane id=":3_0_1" index="1" speed="13.89" length="23.87" shape="495.05,9.85 495.98,3.37 498.75,-1.25 503.38,-4.03 509.85,-4.95"/>
        <lane id=":3_0_2" index="2" speed="13.89" length="23.87" shape="498.35,9.85 499.07,4.82 501.23,1.22 504.82,-0.93 509.85,-1.65"/>
    </edge>
    <edge id=":3_3" function="internal">
        <lane id=":3_3_0" index="0" speed="13.89" length="7.90" shape="509.85,8.25 509.15,8.35 508.65,8.65 508.35,9.15 508.25,9.85"/>
        <lane id=":3_3_1" index="1" speed="13.89" length="7.90" shape="509.85,4.95 507.71,5.26 506.18,6.17 505.26,7.71 504.95,9.85"/>
        <lane id=":3_3_2" index="2" speed="13.89" length="7.90" shape="509.85,1.65 506.26,2.16 503.70,3.70 502.16,6.26 501.65,9.85"/>
    </edge>
    <edge id=":4_0" function="internal">
        <lane id=":4_0_0" index="0" speed="13.89" length="23.87" shape="509.85,1008.25 501.93,1007.12 496.27,1003.73 492.88,998.07 491.75,990.15"/>
        <lane id=":4_0_1" index="1" speed="13.89" length="23.87" shape="509.85,1004.95 503.38,1004.03 498.75,1001.25 495.98,996.62 495.05,990.15"/>
        <lane id=":4_0_2" index="2" speed="13.89" length="23.87" shape="509.85,1001.65 504.82,1000.93 501.23,998.77 499.07,995.18 498.35,990.15"/>
    </edge>
    <edge id=":4_3" function="internal">
        <lane id=":4_3_0" index="0" speed="13.89" length="7.90" shape="508.25,990.15 508.35,990.85 508.65,991.35 509.15,991.65 509.85,991.75"/>
        <lane id=":4_3_1" index="1" speed="13.89" length="7.90" shape="504.95,990.15 505.26,992.29 506.17,993.83 507.71,994.74 509.85,995.05"/>
        <lane id=":4_3_2" index="2" speed="13.89" length="7.90" shape="501.65,990.15 502.16,993.74 503.70,996.30 506.26,997.84 509.85,998.35"/>
    </edge>
    <edge id=":5_0" function="internal">
        <lane id=":5_0_0" index="0" speed="13.89" length="22.70" shape="1011.35,1008.25 988.65,1008.25"/>
        <lane id=":5_0_1" index="1" speed="13.89" length="22.70" shape="1011.35,1004.95 988.65,1004.95"/>
        <lane id=":5_0_2" index="2" speed="13.89" length="22.70" shape="1011.35,1001.65 988.65,1001.65"/>
    </edge>
    <edge id=":5_3" function="internal">
        <lane id=":5_3_0" index="0" speed="13.89" length="8.35" shape="1011.35,1001.65 1004.22,1000.84 1002.36,999.95"/>
        <lane id=":5_3_1" index="1" speed="13.89" length="8.35" shape="1011.35,1001.65 1005.66,1000.84 1004.18,999.95"/>
    </edge>
    <edge id=":5_12" function="internal">
        <lane id=":5_12_0" index="0" speed="13.89" length="14.45" shape="1002.36,999.95 999.12,998.40 996.07,994.34 995.05,988.65"/>
    </edge>
    <edge id=":5_13" function="internal">
        <lane id=":5_13_0" index="0" speed="13.89" length="13.50" shape="1004.18,999.95 1001.60,998.40 999.16,994.34 998.35,988.65"/>
    </edge>
    <edge id=":5_5" function="internal">
        <lane id=":5_5_0" index="0" speed="13.89" length="5.00" shape="1008.25,988.65 1008.44,990.01 1009.02,990.98 1009.99,991.56 1011.35,991.75"/>
    </edge>
    <edge id=":5_6" function="internal">
        <lane id=":5_6_0" index="0" speed="13.89" length="23.63" shape="1004.95,988.65 1003.93,995.78 1000.88,1000.88 995.78,1003.93 988.65,1004.95"/>
        <lane id=":5_6_1" index="1" speed="13.89" length="23.63" shape="1001.65,988.65 1000.84,994.34 998.40,998.40 994.34,1000.84 988.65,1001.65"/>
    </edge>
    <edge id=":5_8" function="internal">
        <lane id=":5_8_0" index="0" speed="13.89" length="5.00" shape="988.65,991.75 990.01,991.56 990.98,990.98 991.56,990.01 991.75,988.65"/>
    </edge>
    <edge id=":5_9" function="internal">
        <lane id=":5_9_0" index="0" speed="13.89" length="22.70" shape="988.65,991.75 1011.35,991.75"/>
        <lane id=":5_9_1" index="1" speed="13.89" length="22.70" shape="988.65,995.05 1011.35,995.05"/>
        <lane id=":5_9_2" index="2" speed="13.89" length="22.70" shape="988.65,998.35 1011.35,998.35"/>
    </edge>
    <edge id=":6_0" function="internal">
        <lane id=":6_0_0" index="0" speed="13.89" length="5.00" shape="991.75,11.35 991.56,9.99 990.98,9.02 990.01,8.44 988.65,8.25"/>
    </edge>
    <edge id=":6_1" function="internal">
        <lane id=":6_1_0" index="0" speed="13.89" length="23.63" shape="995.05,11.35 996.07,4.22 999.12,-0.88 1004.22,-3.93 1011.35,-4.95"/>
        <lane id=":6_1_1" index="1" speed="13.89" length="23.63" shape="998.35,11.35 999.16,5.66 1001.60,1.60 1005.66,-0.84 1011.35,-1.65"/>
    </edge>
    <edge id=":6_3" function="internal">
        <lane id=":6_3_0" index="0" speed="13.89" length="5.00" shape="1011.35,8.25 1009.99,8.44 1009.02,9.02 1008.44,9.99 1008.25,11.35"/>
    </edge>
    <edge id=":6_4" function="internal">
        <lane id=":6_4_0" index="0" speed="13.89" length="22.70" shape="1011.35,8.25 988.65,8.25"/>
        <lane id=":6_4_1" index="1" speed="13.89" length="22.70" shape="1011.35,4.95 988.65,4.95"/>
        <lane id=":6_4_2" index="2" speed="13.89" length="22.70" shape="1011.35,1.65 988.65,1.65"/>
    </edge>
    <edge id=":6_7" function="internal">
        <lane id=":6_7_0" index="0" speed="13.89" length="22.70" shape="988.65,-8.25 1011.35,-8.25"/>
        <lane id=":6_7_1" index="1" speed="13.89" length="22.70" shape="988.65,-4.95 1011.35,-4.95"/>
        <lane id=":6_7_2" index="2" speed="13.89" length="22.70" shape="988.65,-1.65 1011.35,-1.65"/>
    </edge>
    <edge id=":6_10" function="internal">
        <lane id=":6_10_0" index="0" speed="13.89" length="8.35" shape="988.65,-1.65 995.78,-0.84 997.64,0.05"/>
        <lane id=":6_10_1" index="1" speed="13.89" length="8.35" shape="988.65,-1.65 994.34,-0.84 995.82,0.05"/>
    </edge>
    <edge id=":6_12" function="internal">
        <lane id=":6_12_0" index="0" speed="13.89" length="14.45" shape="997.64,0.05 1000.88,1.60 1003.93,5.66 1004.95,11.35"/>
    </edge>
    <edge id=":6_13" function="internal">
        <lane id=":6_13_0" index="0" speed="13.89" length="13.50" shape="995.82,0.05 998.40,1.60 1000.84,5.66 1001.65,11.35"/>
    </edge>
    <edge id=":7_0" function="internal">
        <lane id=":7_0_0" index="0" speed="13.89" length="5.00" shape="1491.75,511.35 1491.56,509.99 1490.97,509.02 1490.01,508.44 1488.65,508.25"/>
    </edge>
    <edge id=":7_1" function="internal">
        <lane id=":7_1_0" index="0" speed="13.89" length="22.70" shape="1491.75,511.35 1491.75,488.65"/>
        <lane id=":7_1_1" index="1" speed="13.89" length="22.70" shape="1495.05,511.35 1495.05,488.65"/>
        <lane id=":7_1_2" index="2" speed="13.89" length="22.70" shape="1498.35,511.35 1498.35,488.65"/>
    </edge>
    <edge id=":7_4" function="internal">
        <lane id=":7_4_0" index="0" speed="13.89" length="7.47" shape="1498.35,511.35 1499.16,505.66 1500.05,504.18"/>
    </edge>
    <edge id=":7_20" function="internal">
        <lane id=":7_20_0" index="0" speed="13.89" length="13.50" shape="1500.05,504.18 1501.60,501.60 1505.66,499.16 1511.35,498.35"/>
    </edge>
    <edge id=":7_5" function="internal">
        <lane id=":7_5_0" index="0" speed="13.89" length="5.00" shape="1511.35,508.25 1509.99,508.44 1509.03,509.02 1508.44,509.99 1508.25,511.35"/>
    </edge>
    <edge id=":7_6" function="internal">
        <lane id=":7_6_0" index="0" speed="13.89" length="22.70" shape="1511.35,508.25 1488.65,508.25"/>
        <lane id=":7_6_1" index="1" speed="13.89" length="22.70" shape="1511.35,504.95 1488.65,504.95"/>
        <lane id=":7_6_2" index="2" speed="13.89" length="22.70" shape="1511.35,501.65 1488.65,501.65"/>
    </edge>
    <edge id=":7_9" function="internal">
        <lane id=":7_9_0" index="0" speed="13.89" length="7.47" shape="1511.35,501.65 1505.66,500.84 1504.18,499.95"/>
    </edge>
    <edge id=":7_21" function="internal">
        <lane id=":7_21_0" index="0" speed="13.89" length="13.50" shape="1504.18,499.95 1501.60,498.40 1499.16,494.34 1498.35,488.65"/>
    </edge>
    <edge id=":7_10" function="internal">
        <lane id=":7_10_0" index="0" speed="13.89" length="5.00" shape="1508.25,488.65 1508.44,490.01 1509.03,490.98 1509.99,491.56 1511.35,491.75"/>
    </edge>
    <edge id=":7_11" function="internal">
        <lane id=":7_11_0" index="0" speed="13.89" length="22.70" shape="1508.25,488.65 1508.25,511.35"/>
        <lane id=":7_11_1" index="1" speed="13.89" length="22.70" shape="1504.95,488.65 1504.95,511.35"/>
        <lane id=":7_11_2" index="2" speed="13.89" length="22.70" shape="1501.65,488.65 1501.65,511.35"/>
    </edge>
    <edge id=":7_14" function="internal">
        <lane id=":7_14_0" index="0" speed="13.89" length="7.47" shape="1501.65,488.65 1500.84,494.34 1499.95,495.82"/>
    </edge>
    <edge id=":7_22" function="internal">
        <lane id=":7_22_0" index="0" speed="13.89" length="13.50" shape="1499.95,495.82 1498.40,498.40 1494.34,500.84 1488.65,501.65"/>
    </edge>
    <edge id=":7_15" function="internal">
        <lane id=":7_15_0" index="0" speed="13.89" length="5.00" shape="1488.65,491.75 1490.01,491.56 1490.97,490.98 1491.56,490.01 1491.75,488.65"/>
    </edge>
    <edge id=":7_16" function="internal">
        <lane id=":7_16_0" index="0" speed="13.89" length="22.70" shape="1488.65,491.75 1511.35,491.75"/>
        <lane id=":7_16_1" index="1" speed="13.89" length="22.70" shape="1488.65,495.05 1511.35,495.05"/>
        <lane id=":7_16_2" index="2" speed="13.89" length="22.70" shape="1488.65,498.35 1511.35,498.35"/>
    </edge>
    <edge id=":7_19" function="internal">
        <lane id=":7_19_0" index="0" speed="13.89" length="7.47" shape="1488.65,498.35 1494.34,499.16 1495.82,500.05"/>
    </edge>
    <edge id=":7_23" function="internal">
        <lane id=":7_23_0" index="0" speed="13.89" length="13.50" shape="1495.82,500.05 1498.40,501.60 1500.84,505.66 1501.65,511.35"/>
    </edge>
    <edge id=":8_0" function="internal">
        <lane id=":8_0_0" index="0" speed="13.89" length="23.87" shape="1508.25,990.15 1507.12,998.07 1503.72,1003.73 1498.07,1007.12 1490.15,1008.25"/>
        <lane id=":8_0_1" index="1" speed="13.89" length="23.87" shape="1504.95,990.15 1504.03,996.63 1501.25,1001.25 1496.62,1004.03 1490.15,1004.95"/>
        <lane id=":8_0_2" index="2" speed="13.89" length="23.87" shape="1501.65,990.15 1500.93,995.18 1498.78,998.77 1495.18,1000.93 1490.15,1001.65"/>
    </edge>
    <edge id=":8_3" function="internal">
        <lane id=":8_3_0" index="0" speed="13.89" length="7.90" shape="1490.15,991.75 1490.85,991.65 1491.35,991.35 1491.65,990.85 1491.75,990.15"/>
        <lane id=":8_3_1" index="1" speed="13.89" length="7.90" shape="1490.15,995.05 1492.29,994.74 1493.83,993.82 1494.74,992.29 1495.05,990.15"/>
        <lane id=":8_3_2" index="2" speed="13.89" length="7.90" shape="1490.15,998.35 1493.74,997.84 1496.30,996.30 1497.84,993.74 1498.35,990.15"/>
    </edge>
    <edge id=":9_0" function="internal">
        <lane id=":9_0_0" index="0" speed="13.89" length="7.90" shape="1491.75,9.85 1491.65,9.15 1491.35,8.65 1490.85,8.35 1490.15,8.25"/>
        <lane id=":9_0_1" index="1" speed="13.89" length="7.90" shape="1495.05,9.85 1494.74,7.71 1493.82,6.18 1492.29,5.26 1490.15,4.95"/>
        <lane id=":9_0_2" index="2" speed="13.89" length="7.90" shape="1498.35,9.85 1497.84,6.26 1496.30,3.70 1493.74,2.16 1490.15,1.65"/>
    </edge>
    <edge id=":9_3" function="internal">
        <lane id=":9_3_0" index="0" speed="13.89" length="23.87" shape="1490.15,-8.25 1498.07,-7.12 1503.72,-3.73 1507.12,1.93 1508.25,9.85"/>
        <lane id=":9_3_1" index="1" speed="13.89" length="23.87" shape="1490.15,-4.95 1496.63,-4.03 1501.25,-1.25 1504.03,3.37 1504.95,9.85"/>
        <lane id=":9_3_2" index="2" speed="13.89" length="23.87" shape="1490.15,-1.65 1495.18,-0.93 1498.78,1.22 1500.93,4.82 1501.65,9.85"/>
    </edge>

    <edge id="01" from="0" to="1" priority="1">
        <lane id="01_0" index="0" speed="13.89" length="488.65" shape="488.65,508.25 0.00,508.25"/>
        <lane id="01_1" index="1" speed="13.89" length="488.65" shape="488.65,504.95 0.00,504.95"/>
        <lane id="01_2" index="2" speed="13.89" length="488.65" shape="488.65,501.65 0.00,501.65"/>
    </edge>
    <edge id="02" from="0" to="2" priority="1">
        <lane id="02_0" index="0" speed="13.89" length="477.30" shape="511.35,491.75 988.65,491.75"/>
        <lane id="02_1" index="1" speed="13.89" length="477.30" shape="511.35,495.05 988.65,495.05"/>
        <lane id="02_2" index="2" speed="13.89" length="477.30" shape="511.35,498.35 988.65,498.35"/>
    </edge>
    <edge id="03" from="0" to="3" priority="1">
        <lane id="03_0" index="0" speed="13.89" length="478.80" shape="491.75,488.65 491.75,9.85"/>
        <lane id="03_1" index="1" speed="13.89" length="478.80" shape="495.05,488.65 495.05,9.85"/>
        <lane id="03_2" index="2" speed="13.89" length="478.80" shape="498.35,488.65 498.35,9.85"/>
    </edge>
    <edge id="04" from="0" to="4" priority="1">
        <lane id="04_0" index="0" speed="13.89" length="478.80" shape="508.25,511.35 508.25,990.15"/>
        <lane id="04_1" index="1" speed="13.89" length="478.80" shape="504.95,511.35 504.95,990.15"/>
        <lane id="04_2" index="2" speed="13.89" length="478.80" shape="501.65,511.35 501.65,990.15"/>
    </edge>
    <edge id="10" from="1" to="0" priority="1">
        <lane id="10_0" index="0" speed="13.89" length="488.65" shape="0.00,491.75 488.65,491.75"/>
        <lane id="10_1" index="1" speed="13.89" length="488.65" shape="0.00,495.05 488.65,495.05"/>
        <lane id="10_2" index="2" speed="13.89" length="488.65" shape="0.00,498.35 488.65,498.35"/>
    </edge>
    <edge id="107" from="10" to="7" priority="1">
        <lane id="107_0" index="0" speed="13.89" length="488.65" shape="2000.00,508.25 1511.35,508.25"/>
        <lane id="107_1" index="1" speed="13.89" length="488.65" shape="2000.00,504.95 1511.35,504.95"/>
        <lane id="107_2" index="2" speed="13.89" length="488.65" shape="2000.00,501.65 1511.35,501.65"/>
    </edge>
    <edge id="20" from="2" to="0" priority="1">
        <lane id="20_0" index="0" speed="13.89" length="477.30" shape="988.65,508.25 511.35,508.25"/>
        <lane id="20_1" index="1" speed="13.89" length="477.30" shape="988.65,504.95 511.35,504.95"/>
        <lane id="20_2" index="2" speed="13.89" length="477.30" shape="988.65,501.65 511.35,501.65"/>
    </edge>
    <edge id="25" from="2" to="5" priority="1">
        <lane id="25_0" index="0" speed="13.89" length="477.30" shape="1008.25,511.35 1008.25,988.65"/>
        <lane id="25_1" index="1" speed="13.89" length="477.30" shape="1004.95,511.35 1004.95,988.65"/>
        <lane id="25_2" index="2" speed="13.89" length="477.30" shape="1001.65,511.35 1001.65,988.65"/>
    </edge>
    <edge id="26" from="2" to="6" priority="1">
        <lane id="26_0" index="0" speed="13.89" length="477.30" shape="991.75,488.65 991.75,11.35"/>
        <lane id="26_1" index="1" speed="13.89" length="477.30" shape="995.05,488.65 995.05,11.35"/>
        <lane id="26_2" index="2" speed="13.89" length="477.30" shape="998.35,488.65 998.35,11.35"/>
    </edge>
    <edge id="27" from="2" to="7" priority="1">
        <lane id="27_0" index="0" speed="13.89" length="477.30" shape="1011.35,491.75 1488.65,491.75"/>
        <lane id="27_1" index="1" speed="13.89" length="477.30" shape="1011.35,495.05 1488.65,495.05"/>
        <lane id="27_2" index="2" speed="13.89" length="477.30" shape="1011.35,498.35 1488.65,498.35"/>
    </edge>
    <edge id="30" from="3" to="0" priority="1">
        <lane id="30_0" index="0" speed="13.89" length="478.80" shape="508.25,9.85 508.25,488.65"/>
        <lane id="30_1" index="1" speed="13.89" length="478.80" shape="504.95,9.85 504.95,488.65"/>
        <lane id="30_2" index="2" speed="13.89" length="478.80" shape="501.65,9.85 501.65,488.65"/>
    </edge>
    <edge id="36" from="3" to="6" priority="1">
        <lane id="36_0" index="0" speed="13.89" length="478.80" shape="509.85,-8.25 988.65,-8.25"/>
        <lane id="36_1" index="1" speed="13.89" length="478.80" shape="509.85,-4.95 988.65,-4.95"/>
        <lane id="36_2" index="2" speed="13.89" length="478.80" shape="509.85,-1.65 988.65,-1.65"/>
    </edge>
    <edge id="40" from="4" to="0" priority="1">
        <lane id="40_0" index="0" speed="13.89" length="478.80" shape="491.75,990.15 491.75,511.35"/>
        <lane id="40_1" index="1" speed="13.89" length="478.80" shape="495.05,990.15 495.05,511.35"/>
        <lane id="40_2" index="2" speed="13.89" length="478.80" shape="498.35,990.15 498.35,511.35"/>
    </edge>
    <edge id="45" from="4" to="5" priority="1">
        <lane id="45_0" index="0" speed="13.89" length="478.80" shape="509.85,991.75 988.65,991.75"/>
        <lane id="45_1" index="1" speed="13.89" length="478.80" shape="509.85,995.05 988.65,995.05"/>
        <lane id="45_2" index="2" speed="13.89" length="478.80" shape="509.85,998.35 988.65,998.35"/>
    </edge>
    <edge id="52" from="5" to="2" priority="1">
        <lane id="52_0" index="0" speed="13.89" length="477.30" shape="991.75,988.65 991.75,511.35"/>
        <lane id="52_1" index="1" speed="13.89" length="477.30" shape="995.05,988.65 995.05,511.35"/>
        <lane id="52_2" index="2" speed="13.89" length="477.30" shape="998.35,988.65 998.35,511.35"/>
    </edge>
    <edge id="54" from="5" to="4" priority="1">
        <lane id="54_0" index="0" speed="13.89" length="478.80" shape="988.65,1008.25 509.85,1008.25"/>
        <lane id="54_1" index="1" speed="13.89" length="478.80" shape="988.65,1004.95 509.85,1004.95"/>
        <lane id="54_2" index="2" speed="13.89" length="478.80" shape="988.65,1001.65 509.85,1001.65"/>
    </edge>
    <edge id="58" from="5" to="8" priority="1">
        <lane id="58_0" index="0" speed="13.89" length="478.80" shape="1011.35,991.75 1490.15,991.75"/>
        <lane id="58_1" index="1" speed="13.89" length="478.80" shape="1011.35,995.05 1490.15,995.05"/>
        <lane id="58_2" index="2" speed="13.89" length="478.80" shape="1011.35,998.35 1490.15,998.35"/>
    </edge>
    <edge id="62" from="6" to="2" priority="1">
        <lane id="62_0" index="0" speed="13.89" length="477.30" shape="1008.25,11.35 1008.25,488.65"/>
        <lane id="62_1" index="1" speed="13.89" length="477.30" shape="1004.95,11.35 1004.95,488.65"/>
        <lane id="62_2" index="2" speed="13.89" length="477.30" shape="1001.65,11.35 1001.65,488.65"/>
    </edge>
    <edge id="63" from="6" to="3" priority="1">
        <lane id="63_0" index="0" speed="13.89" length="478.80" shape="988.65,8.25 509.85,8.25"/>
        <lane id="63_1" index="1" speed="13.89" length="478.80" shape="988.65,4.95 509.85,4.95"/>
        <lane id="63_2" index="2" speed="13.89" length="478.80" shape="988.65,1.65 509.85,1.65"/>
    </edge>
    <edge id="69" from="6" to="9" priority="1">
        <lane id="69_0" index="0" speed="13.89" length="478.80" shape="1011.35,-8.25 1490.15,-8.25"/>
        <lane id="69_1" index="1" speed="13.89" length="478.80" shape="1011.35,-4.95 1490.15,-4.95"/>
        <lane id="69_2" index="2" speed="13.89" length="478.80" shape="1011.35,-1.65 1490.15,-1.65"/>
    </edge>
    <edge id="710" from="7" to="10" priority="1">
        <lane id="710_0" index="0" speed="13.89" length="488.65" shape="1511.35,491.75 2000.00,491.75"/>
        <lane id="710_1" index="1" speed="13.89" length="488.65" shape="1511.35,495.05 2000.00,495.05"/>
        <lane id="710_2" index="2" speed="13.89" length="488.65" shape="1511.35,498.35 2000.00,498.35"/>
    </edge>
    <edge id="72" from="7" to="2" priority="1">
        <lane id="72_0" index="0" speed="13.89" length="477.30" shape="1488.65,508.25 1011.35,508.25"/>
        <lane id="72_1" index="1" speed="13.89" length="477.30" shape="1488.65,504.95 1011.35,504.95"/>
        <lane id="72_2" index="2" speed="13.89" length="477.30" shape="1488.65,501.65 1011.35,501.65"/>
    </edge>
    <edge id="78" from="7" to="8" priority="1">
        <lane id="78_0" index="0" speed="13.89" length="478.80" shape="1508.25,511.35 1508.25,990.15"/>
        <lane id="78_1" index="1" speed="13.89" length="478.80" shape="1504.95,511.35 1504.95,990.15"/>
        <lane id="78_2" index="2" speed="13.89" length="478.80" shape="1501.65,511.35 1501.65,990.15"/>
    </edge>
    <edge id="79" from="7" to="9" priority="1">
        <lane id="79_0" index="0" speed="13.89" length="478.80" shape="1491.75,488.65 1491.75,9.85"/>
        <lane id="79_1" index="1" speed="13.89" length="478.80" shape="1495.05,488.65 1495.05,9.85"/>
        <lane id="79_2" index="2" speed="13.89" length="478.80" shape="1498.35,488.65 1498.35,9.85"/>
    </edge>
    <edge id="85" from="8" to="5" priority="1">
        <lane id="85_0" index="0" speed="13.89" length="478.80" shape="1490.15,1008.25 1011.35,1008.25"/>
        <lane id="85_1" index="1" speed="13.89" length="478.80" shape="1490.15,1004.95 1011.35,1004.95"/>
        <lane id="85_2" index="2" speed="13.89" length="478.80" shape="1490.15,1001.65 1011.35,1001.65"/>
    </edge>
    <edge id="87" from="8" to="7" priority="1">
        <lane id="87_0" index="0" speed="13.89" length="478.80" shape="1491.75,990.15 1491.75,511.35"/>
        <lane id="87_1" index="1" speed="13.89" length="478.80" shape="1495.05,990.15 1495.05,511.35"/>
        <lane id="87_2" index="2" speed="13.89" length="478.80" shape="1498.35,990.15 1498.35,511.35"/>
    </edge>
    <edge id="96" from="9" to="6" priority="1">
        <lane id="96_0" index="0" speed="13.89" length="478.80" shape="1490.15,8.25 1011.35,8.25"/>
        <lane id="96_1" index="1" speed="13.89" length="478.80" shape="1490.15,4.95 1011.35,4.95"/>