<?xml version="1.0" encoding="UTF-8"?>

<!-- generated on Thu Jan 18 12:32:03 2018 by Netedit Version 0.30.0
<?xml version="1.0" encoding="UTF-8"?>

<configuration xmlns:xsi="http://www.w3.org/2001/XMLSchema-instance" xsi:noNamespaceSchemaLocation="http://sumo.dlr.de/xsd/netconvertConfiguration.xsd">

    <input>
        <sumo-net-file value="/Users/anujdimri/Random-Delay-and-Indirections/complexx_cross.net.xml"/>
    </input>

    <output>
        <output-file value="/Users/anujdimri/Random-Delay-and-Indirections/complexx_cross.net.xml"/>
    </output>

    <processing>
        <no-turnarounds value="true"/>
        <offset.disable-normalization value="true"/>
        <lefthand value="false"/>
        <junctions.corner-detail value="0"/>
        <rectangular-lane-cut value="false"/>
    </processing>

</configuration>
-->

<net version="0.27" xmlns:xsi="http://www.w3.org/2001/XMLSchema-instance" xsi:noNamespaceSchemaLocation="http://sumo.dlr.de/xsd/net_file.xsd">

    <location netOffset="0.00,0.00" convBoundary="0.00,-500.00,2000.00,1000.00" origBoundary="-10000000000.00,-10000000000.00,10000000000.00,10000000000.00" projParameter="!"/>

    <edge id=":0_0" function="internal">
        <lane id=":0_0_0" index="0" speed="13.89" length="5.00" shape="491.75,511.35 491.56,509.99 490.98,509.02 490.01,508.44 488.65,508.25"/>
    </edge>
    <edge id=":0_1" function="internal">
        <lane id=":0_1_0" index="0" speed="13.89" length="22.70" shape="491.75,511.35 491.75,488.65"/>
        <lane id=":0_1_1" index="1" speed="13.89" length="22.70" shape="495.05,511.35 495.05,488.65"/>
        <lane id=":0_1_2" index="2" speed="13.89" length="22.70" shape="498.35,511.35 498.35,488.65"/>
    </edge>
    <edge id=":0_4" function="internal">
        <lane id=":0_4_0" index="0" speed="13.89" length="7.47" shape="498.35,511.35 499.16,505.66 500.05,504.18"/>
    </edge>
    <edge id=":0_20" function="internal">
        <lane id=":0_20_0" index="0" speed="13.89" length="13.50" shape="500.05,504.18 501.60,501.60 505.66,499.16 511.35,498.35"/>
    </edge>
    <edge id=":0_5" function="internal">
        <lane id=":0_5_0" index="0" speed="13.89" length="5.00" shape="511.35,508.25 509.99,508.44 509.02,509.02 508.44,509.99 508.25,511.35"/>
    </edge>
    <edge id=":0_6" function="internal">
        <lane id=":0_6_0" index="0" speed="13.89" length="22.70" shape="511.35,508.25 488.65,508.25"/>
        <lane id=":0_6_1" index="1" speed="13.89" length="22.70" shape="511.35,504.95 488.65,504.95"/>
        <lane id=":0_6_2" index="2" speed="13.89" length="22.70" shape="511.35,501.65 488.65,501.65"/>
    </edge>
    <edge id=":0_9" function="internal">
        <lane id=":0_9_0" index="0" speed="13.89" length="7.47" shape="511.35,501.65 505.66,500.84 504.18,499.95"/>
    </edge>
    <edge id=":0_21" function="internal">
        <lane id=":0_21_0" index="0" speed="13.89" length="13.50" shape="504.18,499.95 501.60,498.40 499.16,494.34 498.35,488.65"/>
    </edge>
    <edge id=":0_10" function="internal">
        <lane id=":0_10_0" index="0" speed="13.89" length="5.00" shape="508.25,488.65 508.44,490.01 509.02,490.98 509.99,491.56 511.35,491.75"/>
    </edge>
    <edge id=":0_11" function="internal">
        <lane id=":0_11_0" index="0" speed="13.89" length="22.70" shape="508.25,488.65 508.25,511.35"/>
        <lane id=":0_11_1" index="1" speed="13.89" length="22.70" shape="504.95,488.65 504.95,511.35"/>
        <lane id=":0_11_2" index="2" speed="13.89" length="22.70" shape="501.65,488.65 501.65,511.35"/>
    </edge>
    <edge id=":0_14" function="internal">
        <lane id=":0_14_0" index="0" speed="13.89" length="7.47" shape="501.65,488.65 500.84,494.34 499.95,495.82"/>
    </edge>
    <edge id=":0_22" function="internal">
        <lane id=":0_22_0" index="0" speed="13.89" length="13.50" shape="499.95,495.82 498.40,498.40 494.34,500.84 488.65,501.65"/>
    </edge>
    <edge id=":0_15" function="internal">
        <lane id=":0_15_0" index="0" speed="13.89" length="5.00" shape="488.65,491.75 490.01,491.56 490.98,490.98 491.56,490.01 491.75,488.65"/>
    </edge>
    <edge id=":0_16" function="internal">
        <lane id=":0_16_0" index="0" speed="13.89" length="22.70" shape="488.65,491.75 511.35,491.75"/>
        <lane id=":0_16_1" index="1" speed="13.89" length="22.70" shape="488.65,495.05 511.35,495.05"/>
        <lane id=":0_16_2" index="2" speed="13.89" length="22.70" shape="488.65,498.35 511.35,498.35"/>
    </edge>
    <edge id=":0_19" function="internal">
        <lane id=":0_19_0" index="0" speed="13.89" length="7.47" shape="488.65,498.35 494.34,499.16 495.82,500.05"/>
    </edge>
    <edge id=":0_23" function="internal">
        <lane id=":0_23_0" index="0" speed="13.89" length="13.50" shape="495.82,500.05 498.40,501.60 500.84,505.66 501.65,511.35"/>
    </edge>
    <edge id=":1_0" function="internal">
        <lane id=":1_0_0" index="0" speed="13.89" length="22.70" shape="-8.25,511.35 -8.25,488.65"/>
        <lane id=":1_0_1" index="1" speed="13.89" length="22.70" shape="-4.95,511.35 -4.95,488.65"/>
        <lane id=":1_0_2" index="2" speed="13.89" length="22.70" shape="-1.65,511.35 -1.65,488.65"/>
    </edge>
    <edge id=":1_3" function="internal">
        <lane id=":1_3_0" index="0" speed="13.89" length="22.33" shape="-1.65,511.35 -0.84,504.22 1.60,499.12 5.66,496.07 11.35,495.05"/>
        <lane id=":1_3_1" index="1" speed="13.89" length="22.33" shape="-1.65,511.35 -0.84,505.66 1.60,501.60 5.66,499.16 11.35,498.35"/>
    </edge>
    <edge id=":1_5" function="internal">
        <lane id=":1_5_0" index="0" speed="13.89" length="5.00" shape="11.35,508.25 9.99,508.44 9.03,509.02 8.44,509.99 8.25,511.35"/>
    </edge>
    <edge id=":1_6" function="internal">
        <lane id=":1_6_0" index="0" speed="13.89" length="23.63" shape="11.35,504.95 4.22,503.93 -0.88,500.88 -3.93,495.78 -4.95,488.65"/>
        <lane id=":1_6_1" index="1" speed="13.89" length="23.63" shape="11.35,501.65 5.66,500.84 1.60,498.40 -0.84,494.34 -1.65,488.65"/>
    </edge>
    <edge id=":1_8" function="internal">
        <lane id=":1_8_0" index="0" speed="13.89" length="5.00" shape="8.25,488.65 8.44,490.01 9.02,490.98 9.99,491.56 11.35,491.75"/>
    </edge>
    <edge id=":1_9" function="internal">
        <lane id=":1_9_0" index="0" speed="13.89" length="22.70" shape="8.25,488.65 8.25,511.35"/>
        <lane id=":1_9_1" index="1" speed="13.89" length="22.70" shape="4.95,488.65 4.95,511.35"/>
        <lane id=":1_9_2" index="2" speed="13.89" length="22.70" shape="1.65,488.65 1.65,511.35"/>
    </edge>
    <edge id=":10_0" function="internal">
        <lane id=":10_0_0" index="0" speed="13.89" length="5.00" shape="1991.75,511.35 1991.56,509.99 1990.97,509.02 1990.01,508.44 1988.65,508.25"/>
    </edge>
    <edge id=":10_1" function="internal">
        <lane id=":10_1_0" index="0" speed="13.89" length="22.70" shape="1991.75,511.35 1991.75,488.65"/>
        <lane id=":10_1_1" index="1" speed="13.89" length="22.70" shape="1995.05,511.35 1995.05,488.65"/>
        <lane id=":10_1_2" index="2" speed="13.89" length="22.70" shape="1998.35,511.35 1998.35,488.65"/>
    </edge>
    <edge id=":10_4" function="internal">
        <lane id=":10_4_0" index="0" speed="13.89" length="22.70" shape="2008.25,488.65 2008.25,511.35"/>
        <lane id=":10_4_1" index="1" speed="13.89" length="22.70" shape="2004.95,488.65 2004.95,511.35"/>
        <lane id=":10_4_2" index="2" speed="13.89" length="22.70" shape="2001.65,488.65 2001.65,511.35"/>
    </edge>
    <edge id=":10_7" function="internal">
        <lane id=":10_7_0" index="0" speed="13.89" length="8.35" shape="2001.65,488.65 2000.84,495.78 1999.95,497.64"/>
        <lane id=":10_7_1" index="1" speed="13.89" length="8.35" shape="2001.65,488.65 2000.84,494.34 1999.95,495.82"/>
    </edge>
    <edge id=":10_12" function="internal">
        <lane id=":10_12_0" index="0" speed="13.89" length="14.45" shape="1999.95,497.64 1998.40,500.88 1994.34,503.93 1988.65,504.95"/>
    </edge>
    <edge id=":10_13" function="internal">
        <lane id=":10_13_0" index="0" speed="13.89" length="13.50" shape="1999.95,495.82 1998.40,498.40 1994.34,500.84 1988.65,501.65"/>
    </edge>
    <edge id=":10_9" function="internal">
        <lane id=":10_9_0" index="0" speed="13.89" length="5.00" shape="1988.65,491.75 1990.01,491.56 1990.97,490.98 1991.56,490.01 1991.75,488.65"/>
    </edge>
    <edge id=":10_10" function="internal">
        <lane id=":10_10_0" index="0" speed="13.89" length="23.63" shape="1988.65,495.05 1995.78,496.07 2000.88,499.12 2003.93,504.22 2004.95,511.35"/>
        <lane id=":10_10_1" index="1" speed="13.89" length="23.63" shape="1988.65,498.35 1994.34,499.16 1998.40,501.60 2000.84,505.66 2001.65,511.35"/>
    </edge>
    <edge id=":11_0" function="internal">
        <lane id=":11_0_0" index="0" speed="13.89" length="23.87" shape="9.85,1008.25 1.93,1007.12 -3.72,1003.73 -7.12,998.07 -8.25,990.15"/>
        <lane id=":11_0_1" index="1" speed="13.89" length="23.87" shape="9.85,1004.95 3.38,1004.03 -1.25,1001.25 -4.02,996.62 -4.95,990.15"/>
        <lane id=":11_0_2" index="2" speed="13.89" length="23.87" shape="9.85,1001.65 4.82,1000.93 1.22,998.77 -0.93,995.18 -1.65,990.15"/>
    </edge>
    <edge id=":11_3" function="internal">
        <lane id=":11_3_0" index="0" speed="13.89" length="7.90" shape="8.25,990.15 8.35,990.85 8.65,991.35 9.15,991.65 9.85,991.75"/>
        <lane id=":11_3_1" index="1" speed="13.89" length="7.90" shape="4.95,990.15 5.26,992.29 6.18,993.83 7.71,994.74 9.85,995.05"/>
        <lane id=":11_3_2" index="2" speed="13.89" length="7.90" shape="1.65,990.15 2.16,993.74 3.70,996.30 6.26,997.84 9.85,998.35"/>
    </edge>
    <edge id=":12_0" function="internal">
        <lane id=":12_0_0" index="0" speed="13.89" length="22.70" shape="-8.25,11.35 -8.25,-11.35"/>
        <lane id=":12_0_1" index="1" speed="13.89" length="22.70" shape="-4.95,11.35 -4.95,-11.35"/>
        <lane id=":12_0_2" index="2" speed="13.89" length="22.70" shape="-1.65,11.35 -1.65,-11.35"/>
    </edge>
    <edge id=":12_3" function="internal">
        <lane id=":12_3_0" index="0" speed="13.89" length="8.35" shape="-1.65,11.35 -0.84,4.22 0.05,2.36"/>
        <lane id=":12_3_1" index="1" speed="13.89" length="8.35" shape="-1.65,11.35 -0.84,5.66 0.05,4.18"/>
    </edge>
    <edge id=":12_12" function="internal">
        <lane id=":12_12_0" index="0" speed="13.89" length="14.45" shape="0.05,2.36 1.60,-0.88 5.66,-3.93 11.35,-4.95"/>
    </edge>
    <edge id=":12_13" function="internal">
        <lane id=":12_13_0" index="0" speed="13.89" length="13.50" shape="0.05,4.18 1.60,1.60 5.66,-0.84 11.35,-1.65"/>
    </edge>
    <edge id=":12_5" function="internal">
        <lane id=":12_5_0" index="0" speed="13.89" length="5.00" shape="11.35,8.25 9.99,8.44 9.02,9.02 8.44,9.99 8.25,11.35"/>
    </edge>
    <edge id=":12_6" function="internal">
        <lane id=":12_6_0" index="0" speed="13.89" length="23.63" shape="11.35,4.95 4.22,3.93 -0.88,0.88 -3.93,-4.22 -4.95,-11.35"/>
        <lane id=":12_6_1" index="1" speed="13.89" length="23.63" shape="11.35,1.65 5.66,0.84 1.60,-1.60 -0.84,-5.66 -1.65,-11.35"/>
    </edge>
    <edge id=":12_8" function="internal">
        <lane id=":12_8_0" index="0" speed="13.89" length="5.00" shape="8.25,-11.35 8.44,-9.99 9.02,-9.02 9.99,-8.44 11.35,-8.25"/>
    </edge>
    <edge id=":12_9" function="internal">
        <lane id=":12_9_0" index="0" speed="13.89" length="22.70" shape="8.25,-11.35 8.25,11.35"/>
        <lane id=":12_9_1" index="1" speed="13.89" length="22.70" shape="4.95,-11.35 4.95,11.35"/>
        <lane id=":12_9_2" index="2" speed="13.89" length="22.70" shape="1.65,-11.35 1.65,11.35"/>
    </edge>
    <edge id=":13_0" function="internal">
        <lane id=":13_0_0" index="0" speed="13.89" length="23.87" shape="-8.25,-490.15 -7.12,-498.07 -3.73,-503.73 1.93,-507.12 9.85,-508.25"/>
        <lane id=":13_0_1" index="1" speed="13.89" length="23.87" shape="-4.95,-490.15 -4.03,-496.62 -1.25,-501.25 3.37,-504.02 9.85,-504.95"/>
        <lane id=":13_0_2" index="2" speed="13.89" length="23.87" shape="-1.65,-490.15 -0.93,-495.18 1.22,-498.77 4.82,-500.93 9.85,-501.65"/>
    </edge>
    <edge id=":13_3" function="internal">
        <lane id=":13_3_0" index="0" speed="13.89" length="7.90" shape="9.85,-491.75 9.15,-491.65 8.65,-491.35 8.35,-490.85 8.25,-490.15"/>
        <lane id=":13_3_1" index="1" speed="13.89" length="7.90" shape="9.85,-495.05 7.71,-494.74 6.17,-493.83 5.26,-492.29 4.95,-490.15"/>
        <lane id=":13_3_2" index="2" speed="13.89" length="7.90" shape="9.85,-498.35 6.26,-497.84 3.70,-496.30 2.16,-493.74 1.65,-490.15"/>
    </edge>
    <edge id=":14_0" function="internal">
        <lane id=":14_0_0" index="0" speed="13.89" length="5.00" shape="491.75,-488.65 491.56,-490.01 490.98,-490.98 490.01,-491.56 488.65,-491.75"/>
    </edge>
    <edge id=":14_1" function="internal">
        <lane id=":14_1_0" index="0" speed="13.89" length="23.63" shape="495.05,-488.65 496.07,-495.78 499.12,-500.88 504.22,-503.93 511.35,-504.95"/>
        <lane id=":14_1_1" index="1" speed="13.89" length="23.63" shape="498.35,-488.65 499.16,-494.34 501.60,-498.40 505.66,-500.84 511.35,-501.65"/>
    </edge>
    <edge id=":14_3" function="internal">
        <lane id=":14_3_0" index="0" speed="13.89" length="5.00" shape="511.35,-491.75 509.99,-491.56 509.02,-490.98 508.44,-490.01 508.25,-488.65"/>
    </edge>
    <edge id=":14_4" function="internal">
        <lane id=":14_4_0" index="0" speed="13.89" length="22.70" shape="511.35,-491.75 488.65,-491.75"/>
        <lane id=":14_4_1" index="1" speed="13.89" length="22.70" shape="511.35,-495.05 488.65,-495.05"/>
        <lane id=":14_4_2" index="2" speed="13.89" length="22.70" shape="511.35,-498.35 488.65,-498.35"/>
    </edge>
    <edge id=":14_7" function="internal">
        <lane id=":14_7_0" index="0" speed="13.89" length="22.70" shape="488.65,-508.25 511.35,-508.25"/>
        <lane id=":14_7_1" index="1" speed="13.89" length="22.70" shape="488.65,-504.95 511.35,-504.95"/>
        <lane id=":14_7_2" index="2" speed="13.89" length="22.70" shape="488.65,-501.65 511.35,-501.65"/>
    </edge>
    <edge id=":14_10" function="internal">
        <lane id=":14_10_0" index="0" speed="13.89" length="8.35" shape="488.65,-501.65 495.78,-500.84 497.64,-499.95"/>
        <lane id=":14_10_1" index="1" speed="13.89" length="8.35" shape="488.65,-501.65 494.34,-500.84 495.82,-499.95"/>
    </edge>
    <edge id=":14_12" function="internal">
        <lane id=":14_12_0" index="0" speed="13.89" length="14.45" shape="497.64,-499.95 500.88,-498.40 503.93,-494.34 504.95,-488.65"/>
    </edge>
    <edge id=":14_13" function="internal">
        <lane id=":14_13_0" index="0" speed="13.89" length="13.50" shape="495.82,-499.95 498.40,-498.40 500.84,-494.34 501.65,-488.65"/>
    </edge>
    <edge id=":15_0" function="internal">
        <lane id=":15_0_0" index="0" speed="13.89" length="5.00" shape="991.75,-488.65 991.56,-490.01 990.98,-490.98 990.01,-491.56 988.65,-491.75"/>
    </edge>
    <edge id=":15_1" function="internal">
        <lane id=":15_1_0" index="0" speed="13.89" length="23.63" shape="995.05,-488.65 996.07,-495.78 999.12,-500.88 1004.22,-503.93 1011.35,-504.95"/>
        <lane id=":15_1_1" index="1" speed="13.89" length="23.63" shape="998.35,-488.65 999.16,-494.34 1001.60,-498.40 1005.66,-500.84 1011.35,-501.65"/>
    </edge>
    <edge id=":15_3" function="internal">
        <lane id=":15_3_0" index="0" speed="13.89" length="5.00" shape="1011.35,-491.75 1009.99,-491.56 1009.02,-490.98 1008.44,-490.01 1008.25,-488.65"/>
    </edge>
    <edge id=":15_4" function="internal">
        <lane id=":15_4_0" index="0" speed="13.89" length="22.70" shape="1011.35,-491.75 988.65,-491.75"/>
        <lane id=":15_4_1" index="1" speed="13.89" length="22.70" shape="1011.35,-495.05 988.65,-495.05"/>
        <lane id=":15_4_2" index="2" speed="13.89" length="22.70" shape="1011.35,-498.35 988.65,-498.35"/>
    </edge>
    <edge id=":15_7" function="internal">
        <lane id=":15_7_0" index="0" speed="13.89" length="22.70" shape="988.65,-508.25 1011.35,-508.25"/>
        <lane id=":15_7_1" index="1" speed="13.89" length="22.70" shape="988.65,-504.95 1011.35,-504.95"/>
        <lane id=":15_7_2" index="2" speed="13.89" length="22.70" shape="988.65,-501.65 1011.35,-501.65"/>
    </edge>
    <edge id=":15_10" function="internal">
        <lane id=":15_10_0" index="0" speed="13.89" length="8.35" shape="988.65,-501.65 995.78,-500.84 997.64,-499.95"/>
        <lane id=":15_10_1" index="1" speed="13.89" length="8.35" shape="988.65,-501.65 994.34,-500.84 995.82,-499.95"/>
    </edge>
    <edge id=":15_12" function="internal">
        <lane id=":15_12_0" index="0" speed="13.89" length="14.45" shape="997.64,-499.95 1000.88,-498.40 1003.93,-494.34 1004.95,-488.65"/>
    </edge>
    <edge id=":15_13" function="internal">
        <lane id=":15_13_0" index="0" speed="13.89" length="13.50" shape="995.82,-499.95 998.40,-498.40 1000.84,-494.34 1001.65,-488.65"/>
    </edge>
    <edge id=":16_0" function="internal">
        <lane id=":16_0_0" index="0" speed="13.89" length="5.00" shape="1491.75,-488.65 1491.56,-490.01 1490.97,-490.98 1490.01,-491.56 1488.65,-491.75"/>
    </edge>
    <edge id=":16_1" function="internal">
        <lane id=":16_1_0" index="0" speed="13.89" length="23.63" shape="1495.05,-488.65 1496.07,-495.78 1499.12,-500.88 1504.22,-503.93 1511.35,-504.95"/>
        <lane id=":16_1_1" index="1" speed="13.89" length="23.63" shape="1498.35,-488.65 1499.16,-494.34 1501.60,-498.40 1505.66,-500.84 1511.35,-501.65"/>
    </edge>
    <edge id=":16_3" function="internal">
        <lane id=":16_3_0" index="0" speed="13.89" length="5.00" shape="1511.35,-491.75 1509.99,-491.56 1509.03,-490.98 1508.44,-490.01 1508.25,-488.65"/>
    </edge>
    <edge id=":16_4" function="internal">
        <lane id=":16_4_0" index="0" speed="13.89" length="22.70" shape="1511.35,-491.75 1488.65,-491.75"/>
        <lane id=":16_4_1" index="1" speed="13.89" length="22.70" shape="1511.35,-495.05 1488.65,-495.05"/>
        <lane id=":16_4_2" index="2" speed="13.89" length="22.70" shape="1511.35,-498.35 1488.65,-498.35"/>
    </edge>
    <edge id=":16_7" function="internal">
        <lane id=":16_7_0" index="0" speed="13.89" length="22.70" shape="1488.65,-508.25 1511.35,-508.25"/>
        <lane id=":16_7_1" index="1" speed="13.89" length="22.70" shape="1488.65,-504.95 1511.35,-504.95"/>
        <lane id=":16_7_2" index="2" speed="13.89" length="22.70" shape="1488.65,-501.65 1511.35,-501.65"/>
    </edge>
    <edge id=":16_10" function="internal">
        <lane id=":16_10_0" index="0" speed="13.89" length="8.35" shape="1488.65,-501.65 1495.78,-500.84 1497.64,-499.95"/>
        <lane id=":16_10_1" index="1" speed="13.89" length="8.35" shape="1488.65,-501.65 1494.34,-500.84 1495.82,-499.95"/>
    </edge>
    <edge id=":16_12" function="internal">
        <lane id=":16_12_0" index="0" speed="13.89" length="14.45" shape="1497.64,-499.95 1500.88,-498.40 1503.93,-494.34 1504.95,-488.65"/>
    </edge>
    <edge id=":16_13" function="internal">
        <lane id=":16_13_0" index="0" speed="13.89" length="13.50" shape="1495.82,-499.95 1498.40,-498.40 1500.84,-494.34 1501.65,-488.65"/>
    </edge>
    <edge id=":17_0" function="internal">
        <lane id=":17_0_0" index="0" speed="13.89" length="7.90" shape="1991.75,-490.15 1991.65,-490.85 1991.35,-491.35 1990.85,-491.65 1990.15,-491.75"/>
        <lane id=":17_0_1" index="1" speed="13.89" length="7.90" shape="1995.05,-490.15 1994.74,-492.29 1993.82,-493.82 1992.29,-494.74 1990.15,-495.05"/>
        <lane id=":17_0_2" index="2" speed="13.89" length="7.90" shape="1998.35,-490.15 1997.84,-493.74 1996.30,-496.30 1993.74,-497.84 1990.15,-498.35"/>
    </edge>
    <edge id=":17_3" function="internal">
        <lane id=":17_3_0" index="0" speed="13.89" length="23.87" shape="1990.15,-508.25 1998.07,-507.12 2003.72,-503.73 2007.12,-498.07 2008.25,-490.15"/>
        <lane id=":17_3_1" index="1" speed="13.89" length="23.87" shape="1990.15,-504.95 1996.63,-504.02 2001.25,-501.25 2004.03,-496.62 2004.95,-490.15"/>
        <lane id=":17_3_2" index="2" speed="13.89" length="23.87" shape="1990.15,-501.65 1995.18,-500.93 1998.78,-498.77 2000.93,-495.18 2001.65,-490.15"/>
    </edge>
    <edge id=":18_0" function="internal">
        <lane id=":18_0_0" index="0" speed="13.89" length="5.00" shape="1991.75,11.35 1991.56,9.99 1990.97,9.02 1990.01,8.44 1988.65,8.25"/>
    </edge>
    <edge id=":18_1" function="internal">
        <lane id=":18_1_0" index="0" speed="13.89" length="22.70" shape="1991.75,11.35 1991.75,-11.35"/>
        <lane id=":18_1_1" index="1" speed="13.89" length="22.70" shape="1995.05,11.35 1995.05,-11.35"/>
        <lane id=":18_1_2" index="2" speed="13.89" length="22.70" shape="1998.35,11.35 1998.35,-11.35"/>
    </edge>
    <edge id=":18_4" function="internal">
        <lane id=":18_4_0" index="0" speed="13.89" length="22.70" shape="2008.25,-11.35 2008.25,11.35"/>
        <lane id=":18_4_1" index="1" speed="13.89" length="22.70" shape="2004.95,-11.35 2004.95,11.35"/>
        <lane id=":18_4_2" index="2" speed="13.89" length="22.70" shape="2001.65,-11.35 2001.65,11.35"/>
    </edge>
    <edge id=":18_7" function="internal">
        <lane id=":18_7_0" index="0" speed="13.89" length="8.35" shape="2001.65,-11.35 2000.84,-4.22 1999.95,-2.36"/>
        <lane id=":18_7_1" index="1" speed="13.89" length="8.35" shape="2001.65,-11.35 2000.84,-5.66 1999.95,-4.18"/>
    </edge>
    <edge id=":18_12" function="internal">
        <lane id=":18_12_0" index="0" speed="13.89" length="14.45" shape="1999.95,-2.36 1998.40,0.88 1994.34,3.93 1988.65,4.95"/>
    </edge>
    <edge id=":18_13" function="internal">
        <lane id=":18_13_0" index="0" speed="13.89" length="13.50" shape="1999.95,-4.18 1998.40,-1.60 1994.34,0.84 1988.65,1.65"/>
    </edge>
    <edge id=":18_9" function="internal">
        <lane id=":18_9_0" index="0" speed="13.89" length="5.00" shape="1988.65,-8.25 1990.01,-8.44 1990.97,-9.02 1991.56,-9.99 1991.75,-11.35"/>
    </edge>
    <edge id=":18_10" function="internal">
        <lane id=":18_10_0" index="0" speed="13.89" length="23.63" shape="1988.65,-4.95 1995.78,-3.93 2000.88,-0.88 2003.93,4.22 2004.95,11.35"/>
        <lane id=":18_10_1" index="1" speed="13.89" length="23.63" shape="1988.65,-1.65 1994.34,-0.84 1998.40,1.60 2000.84,5.66 2001.65,11.35"/>
    </edge>
    <edge id=":19_0" function="internal">
        <lane id=":19_0_0" index="0" speed="13.89" length="23.87" shape="2008.25,990.15 2007.12,998.07 2003.72,1003.73 1998.07,1007.12 1990.15,1008.25"/>
        <lane id=":19_0_1" index="1" speed="13.89" length="23.87" shape="2004.95,990.15 2004.03,996.63 2001.25,1001.25 1996.63,1004.03 1990.15,1004.95"/>
        <lane id=":19_0_2" index="2" speed="13.89" length="23.87" shape="2001.65,990.15 2000.93,995.18 1998.78,998.77 1995.18,1000.93 1990.15,1001.65"/>
    </edge>
    <edge id=":19_3" function="internal">
        <lane id=":19_3_0" index="0" speed="13.89" length="7.90" shape="1990.15,991.75 1990.85,991.65 1991.35,991.35 1991.65,990.85 1991.75,990.15"/>
        <lane id=":19_3_1" index="1" speed="13.89" length="7.90" shape="1990.15,995.05 1992.29,994.74 1993.83,993.82 1994.74,992.29 1995.05,990.15"/>
        <lane id=":19_3_2" index="2" speed="13.89" length="7.90" shape="1990.15,998.35 1993.74,997.84 1996.30,996.30 1997.84,993.74 1998.35,990.15"/>
    </edge>
    <edge id=":2_0" function="internal">
        <lane id=":2_0_0" index="0" speed="13.89" length="5.00" shape="991.75,511.35 991.56,509.99 990.98,509.02 990.01,508.44 988.65,508.25"/>
    </edge>
    <edge id=":2_1" function="internal">
        <lane id=":2_1_0" index="0" speed="13.89" length="22.70" shape="991.75,511.35 991.75,488.65"/>
        <lane id=":2_1_1" index="1" speed="13.89" length="22.70" shape="995.05,511.35 995.05,488.65"/>
        <lane id=":2_1_2" index="2" speed="13.89" length="22.70" shape="998.35,511.35 998.35,488.65"/>
    </edge>
    <edge id=":2_4" function="internal">
        <lane id=":2_4_0" index="0" speed="13.89" length="7.47" shape="998.35,511.35 999.16,505.66 1000.05,504.18"/>
    </edge>
    <edge id=":2_20" function="internal">
        <lane id=":2_20_0" index="0" speed="13.89" length="13.50" shape="1000.05,504.18 1001.60,501.60 1005.66,499.16 1011.35,498.35"/>
    </edge>
    <edge id=":2_5" function="internal">
        <lane id=":2_5_0" index="0" speed="13.89" length="5.00" shape="1011.35,508.25 1009.99,508.44 1009.02,509.02 1008.44,509.99 1008.25,511.35"/>
    </edge>
    <edge id=":2_6" function="internal">
        <lane id=":2_6_0" index="0" speed="13.89" length="22.70" shape="1011.35,508.25 988.65,508.25"/>
        <lane id=":2_6_1" index="1" speed="13.89" length="22.70" shape="1011.35,504.95 988.65,504.95"/>
        <lane id=":2_6_2" index="2" speed="13.89" length="22.70" shape="1011.35,501.65 988.65,501.65"/>
    </edge>
    <edge id=":2_9" function="internal">
        <lane id=":2_9_0" index="0" speed="13.89" length="7.47" shape="1011.35,501.65 1005.66,500.84 1004.18,499.95"/>
    </edge>
    <edge id=":2_21" function="internal">
        <lane id=":2_21_0" index="0" speed="13.89" length="13.50" shape="1004.18,499.95 1001.60,498.40 999.16,494.34 998.35,488.65"/>
    </edge>
    <edge id=":2_10" function="internal">
        <lane id=":2_10_0" index="0" speed="13.89" length="5.00" shape="1008.25,488.65 1008.44,490.01 1009.02,490.98 1009.99,491.56 1011.35,491.75"/>
    </edge>
    <edge id=":2_11" function="internal">
        <lane id=":2_11_0" index="0" speed="13.89" length="22.70" shape="1008.25,488.65 1008.25,511.35"/>
        <lane id=":2_11_1" index="1" speed="13.89" length="22.70" shape="1004.95,488.65 1004.95,511.35"/>
        <lane id=":2_11_2" index="2" speed="13.89" length="22.70" shape="1001.65,488.65 1001.65,511.35"/>
    </edge>
    <edge id=":2_14" function="internal">
        <lane id=":2_14_0" index="0" speed="13.89" length="7.47" shape="1001.65,488.65 1000.84,494.34 999.95,495.82"/>
    </edge>
    <edge id=":2_22" function="internal">
        <lane id=":2_22_0" index="0" speed="13.89" length="13.50" shape="999.95,495.82 998.40,498.40 994.34,500.84 988.65,501.65"/>
    </edge>
    <edge id=":2_15" function="internal">
        <lane id=":2_15_0" index="0" speed="13.89" length="5.00" shape="988.65,491.75 990.01,491.56 990.98,490.98 991.56,490.01 991.75,488.65"/>
    </edge>
    <edge id=":2_16" function="internal">
        <lane id=":2_16_0" index="0" speed="13.89" length="22.70" shape="988.65,491.75 1011.35,491.75"/>
        <lane id=":2_16_1" index="1" speed="13.89" length="22.70" shape="988.65,495.05 1011.35,495.05"/>
        <lane id=":2_16_2" index="2" speed="13.89" length="22.70" shape="988.65,498.35 1011.35,498.35"/>
    </edge>
    <edge id=":2_19" function="internal">
        <lane id=":2_19_0" index="0" speed="13.89" length="7.47" shape="988.65,498.35 994.34,499.16 995.82,500.05"/>
    </edge>
    <edge id=":2_23" function="internal">
        <lane id=":2_23_0" index="0" speed="13.89" length="13.50" shape="995.82,500.05 998.40,501.60 1000.84,505.66 1001.65,511.35"/>
    </edge>
    <edge id=":3_0" function="internal">
        <lane id=":3_0_0" index="0" speed="13.89" length="5.00" shape="491.75,11.35 491.56,9.99 490.98,9.02 490.01,8.44 488.65,8.25"/>
    </edge>
    <edge id=":3_1" function="internal">
        <lane id=":3_1_0" index="0" speed="13.89" length="22.70" shape="491.75,11.35 491.75,-11.35"/>
        <lane id=":3_1_1" index="1" speed="13.89" length="22.70" shape="495.05,11.35 495.05,-11.35"/>
        <lane id=":3_1_2" index="2" speed="13.89" length="22.70" shape="498.35,11.35 498.35,-11.35"/>
    </edge>
    <edge id=":3_4" function="internal">
        <lane id=":3_4_0" index="0" speed="13.89" length="7.47" shape="498.35,11.35 499.16,5.66 500.05,4.18"/>
    </edge>
    <edge id=":3_20" function="internal">
        <lane id=":3_20_0" index="0" speed="13.89" length="13.50" shape="500.05,4.18 501.60,1.60 505.66,-0.84 511.35,-1.65"/>
    </edge>
    <edge id=":3_5" function="internal">
        <lane id=":3_5_0" index="0" speed="13.89" length="5.00" shape="511.35,8.25 509.99,8.44 509.02,9.02 508.44,9.99 508.25,11.35"/>
    </edge>
    <edge id=":3_6" function="internal">
        <lane id=":3_6_0" index="0" speed="13.89" length="22.70" shape="511.35,8.25 488.65,8.25"/>
        <lane id=":3_6_1" index="1" speed="13.89" length="22.70" shape="511.35,4.95 488.65,4.95"/>
        <lane id=":3_6_2" index="2" speed="13.89" length="22.70" shape="511.35,1.65 488.65,1.65"/>
    </edge>
    <edge id=":3_9" function="internal">
        <lane id=":3_9_0" index="0" speed="13.89" length="20.97" shape="511.35,1.65 505.66,0.84 501.60,-1.60 499.16,-5.66 498.35,-11.35"/>
    </edge>
    <edge id=":3_10" function="internal">
        <lane id=":3_10_0" index="0" speed="13.89" length="5.00" shape="508.25,-11.35 508.44,-9.99 509.02,-9.03 509.99,-8.44 511.35,-8.25"/>
    </edge>
    <edge id=":3_11" function="internal">
        <lane id=":3_11_0" index="0" speed="13.89" length="22.70" shape="508.25,-11.35 508.25,11.35"/>
        <lane id=":3_11_1" index="1" speed="13.89" length="22.70" shape="504.95,-11.35 504.95,11.35"/>
        <lane id=":3_11_2" index="2" speed="13.89" length="22.70" shape="501.65,-11.35 501.65,11.35"/>
    </edge>
    <edge id=":3_14" function="internal">
        <lane id=":3_14_0" index="0" speed="13.89" length="7.47" shape="501.65,-11.35 500.84,-5.66 499.95,-4.18"/>
    </edge>
    <edge id=":3_21" function="internal">
        <lane id=":3_21_0" index="0" speed="13.89" length="13.50" shape="499.95,-4.18 498.40,-1.60 494.34,0.84 488.65,1.65"/>
    </edge>
    <edge id=":3_15" function="internal">
        <lane id=":3_15_0" index="0" speed="13.89" length="5.00" shape="488.65,-8.25 490.01,-8.44 490.98,-9.02 491.56,-9.99 491.75,-11.35"/>
    </edge>
    <edge id=":3_16" function="internal">